5
Coordinates from ORCA-job CH2O2GS
  O   0.53577627318939      0.49527323281298      0.87254911460975
  C   -0.40317050322059     -0.08268496234372      0.10410275660661
  O   -0.23836525476348     -0.46048112761273     -1.01853031643815
  H   1.35310624270565      0.54531739335207      0.35439763752788
  H   -1.34315175791097     -0.15469953620859      0.66358080769390
