5
Coordinates from ORCA-job CH2O2ES
  O   0.54269630697663      0.48190578439231      0.83273382060075
  C   -0.38658400088927     -0.05794650734124      0.15598618960728
  O   -0.28242281300435     -0.47379397156992     -1.01798859240988
  H   1.40876493494582      0.57280406523115      0.38135997340399
  H   -1.37825942802883     -0.18024437071230      0.62400860879786
